powerfactory/powerfactory-converter/src/test/resources/MTDC-4-VSC-ACDC-links.xiidm
<?xml version="1.0" encoding="UTF-8"?>
<iidm:network xmlns:iidm="http://www.powsybl.org/schema/iidm/1_17" id="MTDC-4-VSC-ACDC-links" caseDate="2021-01-01T10:00:00.000+02:00" forecastDistance="0" sourceFormat="POWER-FACTORY" minimumValidationLevel="STEADY_STATE_HYPOTHESIS">
    <iidm:dcNode id="4 HVDC Link_T_DC_pos1" name="4 HVDC Link_T_DC_pos1" nominalV="320.0"/>
    <iidm:dcNode id="5 HVDC Link_T_DC_pos2" name="5 HVDC Link_T_DC_pos2" nominalV="320.0"/>
    <iidm:dcNode id="6 HVDC Link_T_DC_neg1" name="6 HVDC Link_T_DC_neg1" nominalV="320.0"/>
    <iidm:dcNode id="7 HVDC Link_T_DC_neg2" name="7 HVDC Link_T_DC_neg2" nominalV="320.0"/>
    <iidm:dcNode id="8 HVDC Link_T_DC_pos3" name="8 HVDC Link_T_DC_pos3" nominalV="525.0"/>
    <iidm:dcNode id="9 HVDC Link_T_DC_pos4" name="9 HVDC Link_T_DC_pos4" nominalV="525.0"/>
    <iidm:dcNode id="10 HVDC Link_T_DC_neg3" name="10 HVDC Link_T_DC_neg3" nominalV="525.0"/>
    <iidm:dcNode id="11 HVDC Link_T_DC_neg4" name="11 HVDC Link_T_DC_neg4" nominalV="525.0"/>
    <iidm:dcLine id="DC-Line_left_pos" dcNode1="4 HVDC Link_T_DC_pos1" dcNode2="5 HVDC Link_T_DC_pos2" r="5.000000074505806" connected1="true" connected2="true"/>
    <iidm:dcLine id="DC-Line_left_neg" dcNode1="6 HVDC Link_T_DC_neg1" dcNode2="7 HVDC Link_T_DC_neg2" r="5.000000074505806" connected1="true" connected2="true"/>
    <iidm:dcLine id="DC-Line_right_pos" dcNode1="8 HVDC Link_T_DC_pos3" dcNode2="9 HVDC Link_T_DC_pos4" r="5.000000074505806" connected1="true" connected2="true"/>
    <iidm:dcLine id="DC-Line_right_neg" dcNode1="10 HVDC Link_T_DC_neg3" dcNode2="11 HVDC Link_T_DC_neg4" r="5.000000074505806" connected1="true" connected2="true"/>
    <iidm:substation id="S41">
        <iidm:voltageLevel id="VL41" nominalV="165.0" topologyKind="NODE_BREAKER">
            <iidm:nodeBreakerTopology>
                <iidm:busbarSection id="VL41_1 Bus 3" node="0"/>
                <iidm:busbarSection id="VL41_12 Bus AC right" node="3"/>
                <iidm:internalConnection node1="0" node2="1"/>
                <iidm:internalConnection node1="0" node2="2"/>
                <iidm:internalConnection node1="3" node2="4"/>
            </iidm:nodeBreakerTopology>
            <iidm:voltageSourceConverter id="right HVDC Converter 3" dcNode1="8 HVDC Link_T_DC_pos3" dcConnected1="true" dcNode2="10 HVDC Link_T_DC_neg3" dcConnected2="true" idleLoss="10.0" switchingLoss="0.0" resistiveLoss="0.0" controlMode="P_PCC" targetP="-600.0" localTargetV="300.0" localTargetQ="-0.0" node1="2">
                <iidm:pccTerminal id="right HVDC Converter 3" number="ONE"/>
                <iidm:minMaxReactiveLimits minQ="-1.7976931348623157E308" maxQ="1.7976931348623157E308"/>
                <iidm:voltageRegulation mode="VOLTAGE" regulating="true"/>
            </iidm:voltageSourceConverter>
            <iidm:voltageSourceConverter id="right HVDC Converter 4" dcNode1="9 HVDC Link_T_DC_pos4" dcConnected1="true" dcNode2="10 HVDC Link_T_DC_neg3" dcConnected2="true" idleLoss="10.200999807357789" switchingLoss="0.0" resistiveLoss="0.0" controlMode="V_DC" targetP="-0.0" localTargetQ="-100.0" targetVdc="530.2499949932098" node1="4">
                <iidm:pccTerminal id="right HVDC Converter 4" number="ONE"/>
                <iidm:minMaxReactiveLimits minQ="-1.7976931348623157E308" maxQ="1.7976931348623157E308"/>
            </iidm:voltageSourceConverter>
        </iidm:voltageLevel>
    </iidm:substation>
    <iidm:substation id="S42">
        <iidm:voltageLevel id="VL42" nominalV="165.0" topologyKind="NODE_BREAKER">
            <iidm:nodeBreakerTopology>
                <iidm:busbarSection id="VL42_2 Bus 2" node="0"/>
                <iidm:internalConnection node1="0" node2="1"/>
            </iidm:nodeBreakerTopology>
            <iidm:voltageSourceConverter id="left HVDC Converter 1" dcNode1="4 HVDC Link_T_DC_pos1" dcConnected1="true" dcNode2="6 HVDC Link_T_DC_neg1" dcConnected2="true" idleLoss="10.0" switchingLoss="0.0" resistiveLoss="0.0" controlMode="P_PCC" targetP="-600.0" localTargetV="300.0" localTargetQ="-0.0" node1="1">
                <iidm:pccTerminal id="left HVDC Converter 1" number="ONE"/>
                <iidm:minMaxReactiveLimits minQ="-1.7976931348623157E308" maxQ="1.7976931348623157E308"/>
                <iidm:voltageRegulation mode="VOLTAGE" regulating="true"/>
            </iidm:voltageSourceConverter>
        </iidm:voltageLevel>
    </iidm:substation>
    <iidm:substation id="S43">
        <iidm:voltageLevel id="VL43" nominalV="165.0" topologyKind="NODE_BREAKER">
            <iidm:nodeBreakerTopology>
                <iidm:busbarSection id="VL43_3 Bus 2-Load" node="0"/>
                <iidm:internalConnection node1="0" node2="1"/>
                <iidm:internalConnection node1="0" node2="2"/>
            </iidm:nodeBreakerTopology>
            <iidm:voltageSourceConverter id="left HVDC Converter 2" dcNode1="5 HVDC Link_T_DC_pos2" dcConnected1="true" dcNode2="7 HVDC Link_T_DC_neg2" dcConnected2="true" idleLoss="10.200999807357789" switchingLoss="0.0" resistiveLoss="0.0" controlMode="V_DC" targetP="-0.0" localTargetQ="-100.0" targetVdc="323.1999969482422" node1="1">
                <iidm:pccTerminal id="left HVDC Converter 2" number="ONE"/>
                <iidm:minMaxReactiveLimits minQ="-1.7976931348623157E308" maxQ="1.7976931348623157E308"/>
            </iidm:voltageSourceConverter>
        </iidm:voltageLevel>
    </iidm:substation>
    <iidm:line id="lne_1_3_1" r="5.200000286102295" x="16.109027862548828" voltageLevelId1="VL43" node1="2" voltageLevelId2="VL41" node2="1"/>
</iidm:network>
